* Deltares, D-Flow FM Version 1.1.219.50507, Apr 03 2017, 22:21:35
* File creation date: 13:20:04, 19-09-2017
** INFO   : Opened file : ISOCOLOUR.hls
** INFO   : Using Local FileISOCOLOUR.hls
** INFO   : Closed file : ISOCOLOUR.hls
** INFO   : Opened file : ISOCOLOUR.hls
** INFO   : Using Local FileISOCOLOUR.hls
** INFO   : Closed file : ISOCOLOUR.hls
** INFO   :  MAXIMUM NUMBER OF LINKS         :            2
** INFO   :  MAXIMUM NUMBER OF NODES         :            0
** INFO   :  RESOLUTION GRAPHICS SCREEN      :         1366         746
** INFO   :  RESOLUTION TEXT     SCREEN      :          170          49
** INFO   :  NUMBER OF COLOURS AVAILABLE     :          256
** DEBUG  :            0  0.1000020     NOD(KMAX)
** DEBUG  :            6  0.7000140     XK (KMAX), YK (KMAX), ZK (KMAX), KC (KMAX), NMK (KMAX), RNOD(KMAX)
** DEBUG  :            6  9.9999998E-03 XS(NSMAX)
** DEBUG  :            6  9.9999998E-03 YS(NSMAX)
** DEBUG  :            6  9.9999998E-03 ZS(NSMAX)
** DEBUG  :            6  9.9999998E-03 IPSAM
** DEBUG  :            7  5.0000001E-02 xlan(maxlan)
** DEBUG  :            7  5.0000001E-02 ylan(maxlan)
** DEBUG  :            7  5.0000001E-02 zlan(maxlan)
** DEBUG  :            8  2.5000000E-02 nclan(maxlan)
 Until here copy of previous diagnostic file
** WARNING: readMDUFile: [numerics] jaorgsethu=1 was in file, but not used. Check possible typo.
** DEBUG  : unc_read_net_ugrid: net file 'baseline/pilot_2016_Waal_v01_net.nc' is not UGRID. No problem, will fall back to old format reader.
** DEBUG  : Opened 'baseline/pilot_2016_Waal_v01_net.nc' as #         3.
** DEBUG  :           10  0.2949320     NOD(KMAX)
** DEBUG  :           27   2.064524     XK (KMAX), YK (KMAX), ZK (KMAX), KC (KMAX), NMK (KMAX), RNOD(KMAX)
** DEBUG  : Closed NetCDF file 'baseline/pilot_2016_Waal_v01_net.nc.
** INFO   : Opened file : baseline/j95_5-v1_landboundaries.ldb
** DEBUG  :           27  5.9999999E-02 xlan(maxlan)
** DEBUG  :           27  5.9999999E-02 ylan(maxlan)
** DEBUG  :           28  5.9999999E-02 zlan(maxlan)
** DEBUG  :           28  2.9999999E-02 nclan(maxlan)
** DEBUG  :           29  7.1999997E-02 xlan(maxlan)
** DEBUG  :           29  7.1999997E-02 ylan(maxlan)
** DEBUG  :           30  7.1999997E-02 zlan(maxlan)
** DEBUG  :           30  3.5999998E-02 nclan(maxlan)
** DEBUG  :           31  8.6400002E-02 xlan(maxlan)
** DEBUG  :           32  8.6400002E-02 ylan(maxlan)
** DEBUG  :           32  8.6400002E-02 zlan(maxlan)
** DEBUG  :           33  4.3200001E-02 nclan(maxlan)
** DEBUG  :           33  0.1036800     xlan(maxlan)
** DEBUG  :           34  0.1036800     ylan(maxlan)
** DEBUG  :           35  0.1036800     zlan(maxlan)
** DEBUG  :           36  5.1840000E-02 nclan(maxlan)
** DEBUG  :           37  0.1244160     xlan(maxlan)
** DEBUG  :           38  0.1244160     ylan(maxlan)
** DEBUG  :           39  0.1244160     zlan(maxlan)
** DEBUG  :           39  6.2208001E-02 nclan(maxlan)
** DEBUG  :           40  0.1492990     xlan(maxlan)
** DEBUG  :           41  0.1492990     ylan(maxlan)
** DEBUG  :           43  0.1492990     zlan(maxlan)
** DEBUG  :           43  7.4648999E-02 nclan(maxlan)
** DEBUG  :           45  0.1791580     xlan(maxlan)
** DEBUG  :           46  0.1791580     ylan(maxlan)
** DEBUG  :           48  0.1791580     zlan(maxlan)
** DEBUG  :           48  8.9579001E-02 nclan(maxlan)
** DEBUG  :           50  0.2149890     xlan(maxlan)
** DEBUG  :           52  0.2149890     ylan(maxlan)
** DEBUG  :           53  0.2149890     zlan(maxlan)
** DEBUG  :           54  0.1074940     nclan(maxlan)
** DEBUG  :           56  0.2579860     xlan(maxlan)
** DEBUG  :           58  0.2579860     ylan(maxlan)
** DEBUG  :           60  0.2579860     zlan(maxlan)
** DEBUG  :           61  0.1289930     nclan(maxlan)
** INFO   : Closed file : baseline/j95_5-v1_landboundaries.ldb
** INFO   : Opened file : baseline/j95_5-v1_observation_points.xyn
** INFO   : Closed file : baseline/j95_5-v1_observation_points.xyn
** INFO   : Opened file : baseline/j95_5-v1_thin_dams_zonderGebouwenPeilers.pli
** INFO   : Closed file : baseline/j95_5-v1_thin_dams_zonderGebouwenPeilers.pli
** INFO   : Opened file : invoer/Q_raaien.crs
** INFO   : Closed file : invoer/Q_raaien.crs
** INFO   : Initializing flow model geometry...
** DEBUG  : Opened 'baseline/pilot_2016_Waal_v01_net.nc' as #         3.
** DEBUG  :           63  0.1926170     netcell(numpx1)
** DEBUG  : Closed NetCDF file 'baseline/pilot_2016_Waal_v01_net.nc.
** DEBUG  :           65  0.1926170     xz(numc)
** DEBUG  :           66  0.1926170     yz(numc)
** DEBUG  :           68  0.1926170     xzw(numc)
** DEBUG  :           69  0.1926170     yzw(numc)
** DEBUG  :           71  0.1926170     ba(numc)
** INFO   : Opened file : baseline/j95_5-v1_dry_areas_zonderGebouwenPeilers.pol
** INFO   : Closed file : baseline/j95_5-v1_dry_areas_zonderGebouwenPeilers.pol
** INFO   : Building kdtree...
** DEBUG  :           71  2.7099999E-03 sample_coords(NTREEDIM,N)
** INFO   : done
** INFO   : Finding crossed flowlinks...
** INFO   : done
** INFO   : Delete kdtree...
** INFO   : thin dams with kdtree2, elapsed time:     0.11500    s.
** DEBUG  :  Renumber flow nodes...
** DEBUG  :  Sumdiff: -1156316643  Sumdiff renum:    346206935
** DEBUG  :  Bandwidth:      192743  Bandwidth renum:          197
** INFO   : Opened file : FlowFM.ext
** DEBUG  :           74  0.3875480     xe (nx)
** DEBUG  :           77  0.3875480     ye (nx)
** DEBUG  :           80  0.3875480     xyen(2, nx)
** DEBUG  :          133   6.588316     kce(nx), ke(nx), kez(nx), keu(nx), kes(nx), ketm(nx), kesd(nx), keuxy(nx), ket(nx), ken(nx), ke1d2d(nx), keg(nx), ked(nx), kep(nx), keklep(nx), kegs(nx), kegen(nx), itpez(nx), itpenz(nx), itpeu(nx) , itpenu(nx) , kew(nx)
** DEBUG  :          136  0.3875480     ketr(1,nx)
** INFO   : Opened file : randvw/BoundaryConditions/Hardinxveld.pli
** INFO   : Closed file : randvw/BoundaryConditions/Hardinxveld.pli
** INFO   : boundary: 'randvw/BoundaryConditions/Hardinxveld.pli' opened 26 cells.
** INFO   : qhbnd randvw/BoundaryConditions/Hardinxveld.pli      26 nr of open bndcells
** INFO   : Opened file : randvw/BoundaryConditions/PanKop.pli
** INFO   : Closed file : randvw/BoundaryConditions/PanKop.pli
** INFO   : boundary: 'randvw/BoundaryConditions/PanKop.pli' opened 20 cells.
** INFO   : dischargebnd randvw/BoundaryConditions/PanKop.pli      20 nr of open bndcells
** DEBUG  :          143  0.8653360     nd(ndx), bl(ndx), bai(ndx), kcs(ndx)
** DEBUG  :          157  0.4258260     ln   (2,lnx)
** DEBUG  :          160  0.4258260     lncn (2,lnx)
** DEBUG  :          163  0.4258260     bob  (2,lnx)
** DEBUG  :          165  0.2129130     dx   (  lnx)
** DEBUG  :          167  0.2129130     dxi  (  lnx)
** DEBUG  :          168  0.2129130     wu   (  lnx)
** DEBUG  :          170  0.2129130     wui  (  lnx)
** DEBUG  :          172  0.2129130     kcu  (  lnx)
** DEBUG  :          174  0.2129130     csu  (  lnx)
** DEBUG  :          175  0.2129130     snu  (  lnx)
** DEBUG  :          177  0.2129130     acl  (  lnx)
** DEBUG  :          179  0.2129130     acn  (2,lnx)
** DEBUG  :          180  0.2129130     iadv   (lnx)
** DEBUG  :          182  0.2129130     teta   (lnx)
** DEBUG  :          184  0.2129130     ibot   (lnx)
** DEBUG  :          189  0.6387390     xu(lnx), yu(lnx) , blu(lnx)
** DEBUG  :          192  0.3875480     ln2lne (nex)
** DEBUG  :          195  0.3875480     lne2ln (nex)
** DEBUG  : addexternalboundarypoints: added 0 bnd points for SOBEK1D-FM2D connections.
** DEBUG  :          200  0.1949320      cn (numk)
** DEBUG  :          202  0.1949320     ucnx(numk)
** DEBUG  :          203  0.1949320     ucny(numk)
** DEBUG  :          205  0.1949320     ban (numk)
** INFO   : setting bedlevel from file 'invoer/samples_5m.xyz'.
** DEBUG  :          206  0.1081670     zh(nx)
** INFO   : Opened file : invoer/samples_5m.xyz
** DEBUG  :          376   21.24380     XS(NSMAX),YS(NSMAX),ZS(NSMAX)
** DEBUG  :          546   21.24380     ipsam(NSMAX)
