* Deltares, D-Flow FM Version 1.1.219.50507, Apr 03 2017, 22:21:35
* File creation date: 14:36:32, 24-08-2017
** INFO   : Opened file : ISOCOLOUR.hls
** INFO   : Using Local FileISOCOLOUR.hls
** INFO   : Closed file : ISOCOLOUR.hls
** INFO   : Opened file : ISOCOLOUR.hls
** INFO   : Using Local FileISOCOLOUR.hls
** INFO   : Closed file : ISOCOLOUR.hls
** INFO   :  MAXIMUM NUMBER OF LINKS         :            2
** INFO   :  MAXIMUM NUMBER OF NODES         :            0
** INFO   :  RESOLUTION GRAPHICS SCREEN      :         1366         746
** INFO   :  RESOLUTION TEXT     SCREEN      :          170          49
** INFO   :  NUMBER OF COLOURS AVAILABLE     :          256
** DEBUG  :            0  0.1000020     NOD(KMAX)
** DEBUG  :            6  0.7000140     XK (KMAX), YK (KMAX), ZK (KMAX), KC (KMAX), NMK (KMAX), RNOD(KMAX)
** DEBUG  :            6  9.9999998E-03 XS(NSMAX)
** DEBUG  :            6  9.9999998E-03 YS(NSMAX)
** DEBUG  :            6  9.9999998E-03 ZS(NSMAX)
** DEBUG  :            6  9.9999998E-03 IPSAM
** DEBUG  :            7  5.0000001E-02 xlan(maxlan)
** DEBUG  :            7  5.0000001E-02 ylan(maxlan)
** DEBUG  :            7  5.0000001E-02 zlan(maxlan)
** DEBUG  :            8  2.5000000E-02 nclan(maxlan)
 Until here copy of previous diagnostic file
** WARNING: readMDUFile: [numerics] jaorgsethu=1 was in file, but not used. Check possible typo.
** WARNING: readMDUFile: [wind] gapres=101325.0000000 was in file, but not used. Check possible typo.
** DEBUG  : unc_read_net_ugrid: net file 'input/simplechannel_net.nc' is not UGRID. No problem, will fall back to old format reader.
** DEBUG  : Opened 'input/simplechannel_net.nc' as #         3.
** DEBUG  : Closed NetCDF file 'input/simplechannel_net.nc.
** INFO   : Initializing flow model geometry...
** DEBUG  : Opened 'input/simplechannel_net.nc' as #         3.
** WARNING: Could not read net cells from NetCDF file 'input/simplechannel_net.nc' (is not critical). Details follow:
** WARNING: NetCDF error: Variable not found (NetElemNode)
** WARNING: NetCDF error: Variable not found (NetElemLink)
** WARNING: NetCDF error: Invalid dimension id or name (nNetElemMaxNode)
** DEBUG  :            8  1.2750000E-03 lnn(numl)
** DEBUG  :            8  2.5500001E-03 lne(2,numl)
** DEBUG  :  Renumber flow nodes...
** DEBUG  :  Sumdiff:      116313  Sumdiff renum:        71955
** DEBUG  :  Bandwidth:         651  Bandwidth renum:           15
** INFO   : Opened file : FlowFM.ext
** DEBUG  :            8  1.2750000E-03 xe (nx)
** DEBUG  :            8  1.2750000E-03 ye (nx)
** DEBUG  :            8  1.2750000E-03 xyen(2, nx)
** DEBUG  :            8  2.1675000E-02 kce(nx), ke(nx), kez(nx), keu(nx), kes(nx), ketm(nx), kesd(nx), keuxy(nx), ket(nx), ken(nx), ke1d2d(nx), keg(nx), ked(nx), kep(nx), keklep(nx), kegs(nx), kegen(nx), itpez(nx), itpenz(nx), itpeu(nx) , itpenu(nx) , kew(nx)
** DEBUG  :            8  1.2750000E-03 ketr(1,nx)
** INFO   : Opened file : boundaries/boundary_upstream.pli
** INFO   : Closed file : boundaries/boundary_upstream.pli
** INFO   : boundary: 'boundaries/boundary_upstream.pli' opened 4 cells.
** INFO   : dischargebnd boundaries/boundary_upstream.pli       4 nr of open bndcells
** INFO   : Opened file : boundaries/boundary_downstream.pli
** INFO   : Closed file : boundaries/boundary_downstream.pli
** INFO   : boundary: 'boundaries/boundary_downstream.pli' opened 4 cells.
** INFO   : qhbnd boundaries/boundary_downstream.pli       4 nr of open bndcells
** DEBUG  :            8  6.4160000E-03 nd(ndx), bl(ndx), bai(ndx), kcs(ndx)
** DEBUG  :            8  2.2300000E-03 ln   (2,lnx)
** DEBUG  :            8  2.2300000E-03 lncn (2,lnx)
** DEBUG  :            8  2.2300000E-03 bob  (2,lnx)
** DEBUG  :            8  1.1150000E-03 dx   (  lnx)
** DEBUG  :            8  1.1150000E-03 dxi  (  lnx)
** DEBUG  :            8  1.1150000E-03 wu   (  lnx)
** DEBUG  :            8  1.1150000E-03 wui  (  lnx)
** DEBUG  :            8  1.1150000E-03 kcu  (  lnx)
** DEBUG  :            8  1.1150000E-03 csu  (  lnx)
** DEBUG  :            8  1.1150000E-03 snu  (  lnx)
** DEBUG  :            8  1.1150000E-03 acl  (  lnx)
** DEBUG  :            8  1.1150000E-03 acn  (2,lnx)
** DEBUG  :            8  1.1150000E-03 iadv   (lnx)
** DEBUG  :            8  1.1150000E-03 teta   (lnx)
** DEBUG  :            8  1.1150000E-03 ibot   (lnx)
** DEBUG  :            8  3.3450001E-03 xu(lnx), yu(lnx) , blu(lnx)
** DEBUG  :            8  1.2750000E-03 ln2lne (nex)
** DEBUG  :            8  1.2750000E-03 lne2ln (nex)
** DEBUG  : addexternalboundarypoints: added 0 bnd points for SOBEK1D-FM2D connections.
** INFO   : setting bedlevel from file 'input/bedlevel_slope.xyz'.
** INFO   : Opened file : input/bedlevel_slope.xyz
** INFO   : Building kdtree...
** INFO   : done
** INFO   : merged 0 samples in .00 seconds.
** INFO   : Delete kdtree...
** INFO   : Closed file : input/bedlevel_slope.xyz
** INFO   : Starting Delaunay triangulation...
** INFO   : done
** INFO   : Determining triangle connectivity and computing polygons and circumcenters...
** INFO   : done
** INFO   : Building kdtree...
** INFO   : done
** INFO   : Delete kdtree...
** INFO   : Opened file : DFM_interpreted_values_bedlevel_slope.xyz
** INFO   : Closed file : DFM_interpreted_values_bedlevel_slope.xyz
** INFO   : setting bedlevel from file 'input/main_channel.pol'.
** INFO   : Opened file : input/main_channel.pol
** INFO   : Closed file : input/main_channel.pol
** INFO   : Opened file : DFM_interpreted_values_main_channel.xyz
** INFO   : Closed file : DFM_interpreted_values_main_channel.xyz
** DEBUG  :            8  1.1150000E-03 wcx1(lnx)
** DEBUG  :            8  1.1150000E-03 wcy1(lnx)
** DEBUG  :            8  1.1150000E-03 wcx2(lnx)
** DEBUG  :            8  1.1150000E-03 wcy2(lnx)
** DEBUG  :            8  1.6040000E-03 wcxy (2,ndx)
** DEBUG  :            8  2.2300000E-03 wcL  (2,Lnx)
** DEBUG  :            8  1.1150000E-03 wcnx3(lnx)
** DEBUG  :            8  1.1150000E-03 wcny3(lnx)
** DEBUG  :            8  1.1150000E-03 wcnx4(lnx)
** DEBUG  :            8  1.1150000E-03 wcny4(lnx)
** DEBUG  :            8  1.4460000E-03 wcnxy (3,numk)
** DEBUG  :            8  2.5599999E-03 walls(17,nw)
** INFO   : Done initializing flow model geometry.
** DEBUG  :            8  1.6040000E-03 s0  (ndx) , s1  (ndx)
** DEBUG  :            8  1.6040000E-03 a0  (ndx) , a1  (ndx)
** DEBUG  :            9  1.6040000E-03 hs  (ndx) , s00 (ndx)
** DEBUG  :            9  1.1150000E-03 Lbot (Lnx)
** DEBUG  :            9  1.1150000E-03 Ltop (Lnx)
** DEBUG  :            9  1.1150000E-03 kmxL (Lnx)
** DEBUG  :            9  1.1150000E-03 ustb  (lnx)
** DEBUG  :            9  1.1150000E-03 ustw  (lnx)
** DEBUG  :            9  1.6040000E-03 ucx (ndkx) , ucy (ndkx)
** DEBUG  :            9  1.1150000E-03 work0 (0:max(kmx,1),max(ndx,lnx))
** DEBUG  :            9  1.1150000E-03 work1 (max(kmx,1),max(ndx,lnx))
** DEBUG  :            9  1.6040000E-03 uqcx(ndkx) , uqcy(ndkx)
** DEBUG  :            9  1.6040000E-03 ucxq(ndkx) , ucyq(ndkx)
** DEBUG  :            9  1.6040000E-03 qin (ndkx) , vih (ndkx)
** DEBUG  :            9  1.6040000E-03 dvxc(ndkx) , dvyc(ndkx)
** DEBUG  :            9  1.1150000E-03 voldhu(ndx)
** DEBUG  :            9  1.1150000E-03 cfuhi(lnx)
** DEBUG  :            9  1.1150000E-03 wdsu  (lnx)
** DEBUG  :            9  1.2750000E-03 cftrt(numl,3)
** DEBUG  :            9  1.1150000E-03 u0   (lnkx)
** DEBUG  :            9  1.1150000E-03 u1   (lnkx)
** DEBUG  :            9  1.1150000E-03 q1   (lnkx)
** DEBUG  :            9  1.1150000E-03 qa   (lnkx)
** DEBUG  :            9  1.1150000E-03 v    (lnkx)
** DEBUG  :            9  1.1150000E-03 ucxu (lnkx)
** DEBUG  :            9  1.1150000E-03 ucyu (lnkx)
** DEBUG  :            9  1.1150000E-03 hu   (lnkx)
** DEBUG  :            9  1.1150000E-03 huvli(lnkx)
** DEBUG  :            9  1.1150000E-03 au   (lnkx)
** DEBUG  :            9  1.1150000E-03 viu  (lnkx)
** DEBUG  :            9  1.1150000E-03 cflj (lnkx)
** DEBUG  :            9  1.1150000E-03 tetaj(lnkx)
** DEBUG  :            9  1.1150000E-03 suu  (lnkx)
** DEBUG  :            9  1.1150000E-03 advi (lnkx)
** DEBUG  :            9  1.1150000E-03 adve (lnkx)
** DEBUG  :            9  1.1150000E-03 plotlin(max(lnkx,ndkx))
*** Start  of trachytopes input
DtTrt               : 300.000 seconds
DtTrt               : every     1 timesteps
Trtdef              : input/trachytopes.ttd
Trtl                : input/trachytopes.arl
TrtCll              : 
TrtMnH              :   0.100 m
TrtMth              :   1
*** End    of trachytopes input
 
** INFO   : Building kdtree...
** DEBUG  :            9  2.5500001E-03 sample_coords(NTREEDIM,N)
** INFO   : done
** INFO   : Delete kdtree...
** INFO   : Start initializing external forcings...
** INFO   : External Forcing or Initialising 'bedlevel' from file 'input/bedlevel_slope.xyz'.
** INFO   : External Forcing or Initialising 'bedlevel' from file 'input/main_channel.pol'.
** INFO   : Closed file : FlowFM.ext
** INFO   : No wind, so waves is switched off
** INFO   : Done initializing external forcings.
** DEBUG  :            9  1.1150000E-03 klnup(6,lnx)
** DEBUG  :            9  1.1150000E-03 slnup(6,lnx)
** DEBUG  :            9  1.1150000E-03 lv2(lintot)
** DEBUG  :            9  2.8540001E-03 ccr(0:ijstck)
** DEBUG  :            9  2.8540001E-03 bbl(0:ijstck)
** DEBUG  :            9  1.6040000E-03 bbr(nodtot), ddr(nodtot)
** DEBUG  :            9  4.0099998E-03 d0(nodtot), zkr(nodtot),pk(0:nodtot), apk(nodtot), rk(nodtot)
** INFO   : nogauss , nocg :            599           203
** DEBUG  :            9  1.1641000E-02 iao(nn+1)
** DEBUG  :            9  5.1449998E-03 ao(na)
** DEBUG  :            9  1.2180000E-02 wk(nwk)
** INFO   : Modelinit finished   at: 14:36:32, 24-08-2017
** INFO   : ** Model initialization was successful **
** INFO   : * Active Model definition:
# Generated on 14:36:32, 24-08-2017
# Deltares, D-Flow FM Version 1.1.219.50507, Apr 03 2017, 22:21:35

[model]
Program                           = D-Flow FM
Version                           = 1.1.219.50507
MDUFormatVersion                  = 1.05                # File format version (do not edit this)
AutoStart                         = 0                   # Autostart simulation after loading MDU (0: no, 1: autostart, 2: autostartstop)

[geometry]
NetFile                           = input/simplechannel_net.nc# Unstructured grid file *_net.nc
BedlevelFile                      =                     # Bedlevels points file e.g. *.xyz, only needed for bedlevtype not equal 3
DryPointsFile                     =                     # Dry points file *.xyz (third column dummy z values), or dry areas polygon file *.pol (third column 1/-1: inside/outside)
WaterLevIniFile                   =                     # Initial water levels sample file *.xyz
LandBoundaryFile                  =                     # Land boundaries file *.ldb, used for visualization
ThinDamFile                       =                     # Polyline file *_thd.pli, containing thin dams
FixedWeirFile                     =                     # Polyline file *_fxw.pliz, containing fixed weirs with rows x, y, crest level, left ground level, right ground level
Gulliesfile                       =                     # Polyline file *_gul.pliz, containing lowest bed level along talweg x, y, z level
VertplizFile                      =                     # Vertical layering file *_vlay.pliz with rows x, y, Z, first Z, nr of layers, second Z, layer type
ProflocFile                       =                     # Channel profile location file *_proflocation.xyz with rows x, y, z, profile number ref
ProfdefFile                       =                     # Channel profile definition file *_profdefinition.def with definition for all profile numbers
ProfdefxyzFile                    =                     # Channel profile definition file _profdefinition.def with definition for all profile numbers
Uniformwidth1D                    = 2.                  # Uniform width for channel profiles not specified by profloc
Uniformheight1D                   = 3.                  # Uniform height for channel profiles not specified by profloc
StructureFile                     =                     # File *.ini containing list of structures (pumps, weirs, gates and general structures)
ManholeFile                       =                     # File *.ini containing manholes
PipeFile                          =                     # File *.pliz containing pipe-based 'culverts'
ShipdefFile                       =                     # File *.shd containing ship definitions
WaterLevIni                       = -999.               # Initial water level at missing s0 values
BedlevUni                         = 0.                  # Uniform bed level used at missing z values if BedlevType > 2
Bedslope                          = -3.d-4              # Bed slope inclination if BedlevType > 2
BedlevType                        = 1                   # Bathymetry specification
                                                        # 1: at cell centers (from BathymetryFile)
                                                        # 2: at faces (from BathymetryFile)
                                                        # 3: at nodes, face levels mean of node values
                                                        # 4: at nodes, face levels min. of node values
                                                        # 5: at nodes, face levels max. of node values
                                                        # 6: at nodes, face levels max. of cell-center values
Blmeanbelow                       = -999.               # If not -999d0, below this level the cell center bed level is the mean of surrouding net nodes
Blminabove                        = -999.               # If not -999d0, above this level the cell center bed level is the min. of surrouding net nodes
PartitionFile                     =                     # Domain partition polygon file *_part.pol for parallel run
AngLat                            = 0.                  # Angle of latitude S-N (deg), 0: no Coriolis
AngLon                            = 0.                  # Angle of longitude E-W (deg), 0: Greenwich, used in solar heat flux computation.
Conveyance2D                      = -1                  # -1: R=HU,0: R=H, 1: R=A/P, 2: K=analytic-1D conv, 3: K=analytic-2D conv
Slotw2D                           = 0.                  # -
Sillheightmin                     = 0.5                 # Weir treatment only if both sills larger than this value (m)
Makeorthocenters                  = 0                   # Switch from circumcentres to orthocentres in geominit (i>=1: number of iterations, 0: do not use)
Dcenterinside                     = 1.                  # Limit cell center (1.0: in cell, 0.0: on c/g)
Bamin                             = 1.d-6               # Minimum grid cell area, in combination with cut cells
OpenBoundaryTolerance             = 3.                  # Search tolerance factor between boundary polyline and grid cells, in cell size units
RenumberFlowNodes                 = 1                   # Renumber the flow nodes (1: yes, 0: no)
Kmx                               = 0                   # Maximum number of vertical layers
Layertype                         = 1                   # Vertical layer type (1: all sigma, 2: all z, 3: use VertplizFile)
Numtopsig                         = 0                   # Number of sigma layers in top of z-layer model
SigmaGrowthFactor                 = 1.                  # Layer thickness growth factor from bed up
StretchType                       = 0                   # Type of layer stretching, 0 = uniform, 1 = user defined, 2 = fixed level double exponential

[numerics]
CFLMax                            = 0.5                 # Maximum Courant number
Lincontin                         = 0                   # Default 0; Set to 1 for linearizing d(Hu)/dx; link to AdvecType
AdvecType                         = 3                   # Advection type (0: none, 1: Wenneker, 2: Wenneker q(uio-u), 3: Perot q(uio-u), 4: Perot q(ui-u), 5: Perot q(ui-u) without itself)
TimeStepType                      = 2                   # Time step handling (0: only transport, 1: transport + velocity update, 2: full implicit step-reduce, 3: step-Jacobi, 4: explicit)
Icoriolistype                     = 5                   # 0=No, 1=yes, if jsferic then spatially varying, if icoriolistype==6 then constant (anglat)
Limtyphu                          = 0                   # Limiter type for waterdepth in continuity eqn. (0: none, 1: minmod, 2: van Leer, 3: Kooren, 4: monotone central)
Limtypmom                         = 4                   # Limiter type for cell center advection velocity (0: none, 1: minmod, 2: van Leer, 3: Kooren, 4: monotone central)
Limtypsa                          = 4                   # Limiter type for salinity transport (0: none, 1: minmod, 2: van Leer, 3: Kooren, 4: monotone central)
TransportMethod                   = 1                   # Transport method (0: Herman's method, 1: transport module)
TransportTimestepping             = 1                   # Timestepping method in Transport module, 0 = global, 1 = local (default)
Vertadvtypsal                     = 5                   # Vertical advection type for salinity (0: none, 1: upwind explicit, 2: central explicit, 3: upwind implicit, 4: central implicit, 5: central implicit but upwind for neg. stratif., 6: higher order explicit, no Forester)
Vertadvtyptem                     = 6                   # Vertical advection type for temperature (0: none, 1: upwind explicit, 2: central explicit, 3: upwind implicit, 4: central implicit, 5: central implicit but upwind for neg. stratif., 6: higher order explicit, no Forester)
Cffacver                          = 0.                  # Factor for including (1-CFL) in HO term vertical   (0d0: no, 1d0: yes)
Jarhoxu                           = 0                   # Inlcude density gradient in advection term (0: no, 1: yes, 2: Also in barotrop and baroclin pressure term)
Horadvtypzlayer                   = 0                   # Horizontal advection treatment of z-layers (1: default, 2: sigma-like)
Zlayeratubybob                    = 0                   # Lowest connected cells governed by bob instead of by bL L/R
Icgsolver                         = 4                   # Solver type (1: sobekGS_OMP, 2: sobekGS_OMPthreadsafe, 3: sobekGS, 4: sobekGS + Saadilud, 5: parallel/global Saad, 6: parallel/Petsc, 7: parallel/GS)
Maxdegree                         = 6                   # Maximum degree in Gauss elimination
Noderivedtypes                    = 0                   # 0=use der. types. , 1 = less, 2 = lesser, 5 = also dealloc der. types
FixedWeirScheme                   = 0                   # Fixed weir scheme (0: none, 1: compact stencil, 2: whole tile lifted, full subgrid weir + factor)
FixedWeirContraction              = 1.                  # Fixed weir flow width contraction factor
Fixedweirfrictscheme              = 1                   # Fixed weir friction scheme (0: friction based on hu, 1: friction based on subgrid weir friction scheme)
Fixedweirtopwidth                 = 3.                  # Uniform width of the groyne part of fixed weirs
Fixedweirtopfrictcoef             = -999.               # Uniform friction coefficient of the groyne part of fixed weirs
Fixedweirtalud                    = 0.25                # Uniform talud slope of fixed weirs
Izbndpos                          = 0                   # Position of z boundary (0: D3Dflow, 1: on net boundary, 2: on specifiend polyline)
Tlfsmo                            = 0.                  # Fourier smoothing time (s) on water level boundaries
Logprofatubndin                   = 1                   # ubnds inflow: 0=uniform U1, 1 = log U1, 2 = log U1 +(k-eps), 3=uniformk
Slopedrop2D                       = 0.                  # Apply drop losses only if local bed slope > Slopedrop2D, (<=0: no drop losses)
Drop3D                            = 0.                  # Apply droplosses in 3D if z upwind below bob + 2/3 hu*drop3D
Chkadvd                           = 0.1                 # Check advection terms if depth < chkadvdp, => less setbacks
Trsh_u1Lb                         = 0.                  # 2D bedfriction in 3D below this threshold (m)
Zwsbtol                           = 0.                  # tolerance for zws(kb-1) at bed
Keepzlayeringatbed                = 1                   #  bedlayerthickness = zlayerthickness at bed 0 or 1
Teta0                             = 0.55                # Theta of time integration (0.5 < theta < 1)
Qhrelax                           = 1.d-2               # Relaxation on Q-h open boundaries
Jbasqbnddownwindhs                = 1                   # Water depth scheme at discharge boundaries (0: original hu, 1: downwind hs)
cstbnd                            = 0                   # Delft-3D type velocity treatment near boundaries for small coastal models (1: yes, 0: no)
Maxitverticalforestersal          = 100                 # Forester iterations for salinity (0: no vertical filter for salinity, > 0: max nr of iterations)
Maxitverticalforestertem          = 0                   # Forester iterations for temperature (0: no vertical filter for temperature, > 0: max nr of iterations)
Turbulencemodel                   = 3                   # Turbulence model (0: none, 1: constant, 2: algebraic, 3: k-epsilon, 4: k-tau)
Turbulenceadvection               = 3                   # Turbulence advection (0: none, 3: horizontally explicit and vertically implicit)
Eddyviscositybedfacmax            = 0.                  # Limit Eddyviscosity at bed )
AntiCreep                         = 0                   # Include anti-creep calculation (0: no, 1: yes)
Maxwaterleveldiff                 = 0.                  # upper bound (in m) on water level changes (<= 0: no bounds). Run will abort when violated.
Maxvelocitydiff                   = 0.                  # upper bound (in m/s) on velocity changes (<= 0: no bounds). Run will abort when violated.
MinTimestepBreak                  = 0.                  # smallest allowed timestep (in s), checked on a sliding average of several timesteps. Run will abort when violated.
Epshu                             = 1.d-4               # Threshold water depth for wet and dry cells
SobekDFM_umin                     = 0.                  # Minimal velocity treshold for weir losses in Sobek-DFM coupling.
SobekDFM_umin_method              = 0                   # Method for minimal velocity treshold for weir losses in Sobek-DFM coupling.
Vertadvtypmom                     = 3                   # vertical advection for u1: 0: No, 3: Upwind implicit, 4: Central implicit, 5: QUICK implicit.
jaupwindsrc                       = 1                   # 1st-order upwind advection at sources/sinks (1) or higher-order (0)

[physics]
UnifFrictCoef                     = 2.3d-2              # Uniform friction coefficient (0: no friction)
UnifFrictType                     = 0                   # Uniform friction type (0: Chezy, 1: Manning, 2: White-Colebrook, 3: idem, WAQUA style)
UnifFrictCoef1D                   = 2.3d-2              # Uniform friction coefficient in 1D links (0: no friction)
UnifFrictCoef1D2D                 = 2.3d-2              # Uniform friction coefficient in 1D links (0: no friction)
UnifFrictCoefLin                  = 0.                  # Uniform linear friction coefficient for ocean models (m/s) (0: no friction)
Umodlin                           = 0.                  # Linear friction umod, for ifrctyp=4,5,6
Vicouv                            = 0.                  # Uniform horizontal eddy viscosity (m2/s)
Dicouv                            = 0.                  # Uniform horizontal eddy diffusivity (m2/s)
Vicoww                            = 0.                  # Uniform vertical eddy viscosity (m2/s)
Dicoww                            = 0.                  # Uniform vertical eddy diffusivity (m2/s)
Vicwminb                          = 0.                  # Minimum visc in prod and buoyancy term (m2/s)
Xlozmidov                         = 0.                  # Ozmidov length scale (m), default=0.0, no contribution of internal waves to vertical diffusion
Smagorinsky                       = 0.                  # Smagorinsky factor in horizontal turbulence, e.g. 0.15
Elder                             = 0.                  # Elder factor in horizontal turbulence
irov                              = 0                   # 0=free slip, 1 = partial slip using wall_ks
wall_ks                           = 0.                  # Wall roughness type (0: free slip, 1: partial slip using wall_ks)
Rhomean                           = 1000.               # Average water density (kg/m3)
Idensform                         = 0                   # Density calulation (0: uniform, 1: Eckard, 2: Unesco, 3: baroclinic case)
Ag                                = 9.81                # Gravitational acceleration
TidalForcing                      = 0                   # Tidal forcing, if jsferic=1 (0: no, 1: yes)
SelfAttractionLoading             = 0                   # Self attraction and loading (0=no, 1=yes, 2=only self attraction)
Doodsonstart                      = 55.565              # TRIWAQ: 55.565, D3D: 57.555
Doodsonstop                       = 375.575             # TRIWAQ: 375.575, D3D: 275.555
Doodsoneps                        = 3.d-2               # TRIWAQ = 0.0  400 cmps , D3D = 0.03   60 cmps
VillemonteCD1                     = 1.                  # Calibration coefficient for Villemonte. Default = 1.0.  NB. For Bloemberg data set 0.8 is recommended.
VillemonteCD2                     = 10.                 # Calibration coefficient for Villemonte. Default = 10.0. NB. For Bloemberg data set 0.8 is recommended.
Salinity                          = 0                   # Include salinity, (0=no, 1=yes)
InitialSalinity                   = 31.                 # Uniform initial salinity concentration (ppt)
Sal0abovezlev                     = -999.               # Vertical level (m) above which salinity is set 0
DeltaSalinity                     = -999.               # for testcases
Backgroundsalinity                = 30.                 # Background salinity for eqn. of state (ppt)
Backgroundwatertemperature        = 6.                  # Background water temperature for eqn. of state (deg C)
Jadelvappos                       = 1                   # Only positive forced evaporation fluxes
Temperature                       = 0                   # Include temperature (0: no, 1: only transport, 3: excess model of D3D, 5: composite (ocean) model)
InitialTemperature                = 6.                  # Uniform initial water temperature (degC)
Secchidepth                       = 1.                  # Water clarity parameter (m)
Stanton                           = -1.                 # Coefficient for convective heat flux, if negative, Ccon = abs(Stanton)*Cdwind
Dalton                            = -1.                 # Coefficient for evaporative heat flux, if negative, Ceva = abs(Dalton)*Cdwind
Tempmax                           = -999.               # Limit the temperature
Tempmin                           = 0.                  # Limit the temperature
SecondaryFlow                     = 0                   # Secondary flow (0: no, 1: yes)
EffectSpiral                      = 0.                  # Weight factor of the spiral flow intensity on transport angle
BetaSpiral                        = 0.                  # Weight factor of the spiral flow intensity on flow dispersion stresses

[sediment]
Sedimentmodelnr                   = 0                   # Sediment model nr, (0=no, 1=Krone, 2=SvR2007)
SedFile                           =                     # Sediment characteristics file (*.sed)
MorFile                           =                     # Morphology settings file (*.mor)
Nr_of_sedfractions                = 0                   # Nr of sediment fractions, (specify the next parameters for each fraction)
MxgrKrone                         = 0                   # Highest fraction index treated by Krone

[veg]
Vegetationmodelnr                 = 0                   # Vegetation model nr, (0=no, 1=Baptist DFM)
Clveg                             = 0.8                 # Stem distance factor, default 0.8 ()
Cdveg                             = 0.7                 # Stem Cd coefficient , default 0.7 ()
Cbveg                             = 0.                  # Stem stiffness coefficient , default 0.7 ()
Rhoveg                            = 0.                  # Stem Rho, if > 0, -> bouyant stick procedure, default 0.0 ()
Stemheightstd                     = 0.                  # Stem height standard deviation fraction, e.g. 0.1  ()

[wind]
ICdtyp                            = 2                   # Wind drag coefficient type (1=Const; 2=Smith&Banke (2 pts); 3=S&B (3 pts); 4=Charnock 1955, 5=Whang 2005, 6=Wuest 2005, 7=Hersbach 2010 (2 pts)
Cdbreakpoints                     = 6.3d-4 7.23d-3      # Wind drag coefficient break points
Windspeedbreakpoints              = 0. 100.             # Wind speed break points (m/s)
Relativewind                      = 0                   # Wind speed relative to top-layer water speed, 1=yes, 0 = no)
Rhoair                            = 1.20000004768372    # Air density (kg/m3)
PavBnd                            = 101325.             # Average air pressure on open boundaries (N/m2) (only applied if > 0)
Pavini                            = 0.                  # Average air pressure for initial water level correction (N/m2) (only applied if > 0)

[grw]
Infiltrationmodel                 = 0                   # 0=No grw, 1=infiltration=interceptionlayer, 2=infiltration=Infiltrationvelocity, 3=model unsaturated/saturated ( )
Hinterceptionlayer                = 0.                  # Intercept this amount of rain (m)
Infiltrationvelocity              = 0.                  # Infiltrationvelocity (m/s)
Conductivity                      = 0.                  # non dimensionless K conductivity   saturated (m/s), Q = K*A*i (m3/s)
h_aquiferuni                      = 20.                 # bgrw = bl - h_aquiferuni (m), if negative, bgrw = bgrwuni
h_unsatini                        = 0.200000002980232   # initial level groundwater is bedlevel - h_unsatini (m), if negative, sgrw = sgrwini

[waves]
Wavemodelnr                       = 0                   # Wave model nr. (0: none, 1: fetch/depth limited hurdlestive, 2: Young-Verhagen, 3: SWAN, 4: wave group forcing, 5: uniform
Wavenikuradse                     = 1.d-2               # Wave friction Nikuradse ks coefficient (m), used in Krone-Swart
Rouwav                            = FR84                # Friction model for wave induced shear stress: FR84 (default) or: MS90, HT91, GM79, DS88, BK67, CJ85, OY88, VR04
Gammax                            = 1.                  # Maximum wave height/water depth ratio

[time]
RefDate                           = 20010101            # Reference date (yyyymmdd)
Tzone                             = 0.                  # Time zone assigned to input time series
DtUser                            = 300.                # Time interval (s) for external forcing update
DtNodal                           = 0.                  # Time interval (s) for updating nodal factors in astronomical boundary conditions
DtMax                             = 100.                # Maximal computation timestep (s)
Dtfacmax                          = 1.1                 # Max timestep increase factor ( )
DtInit                            = 0.5                 # Initial computation timestep (s)
Timestepanalysis                  = 0                   # 0=no, 1=see file *.steps
Tunit                             = S                   # Time unit for start/stop times (D, H, M or S)
TStart                            = 0.                  # Start time w.r.t. RefDate (in TUnit)
TStop                             = 3283200.            # Stop  time w.r.t. RefDate (in TUnit)

[restart]
RestartFile                       =                     # Restart netcdf-file, either *_rst.nc or *_map.nc
RestartDateTime                   = yyyymmdd_HHMMSS     # Restart date and time (YYYYMMDDHHMMSS) when restarting from *_map.nc

[external forcing]
ExtForceFile                      = FlowFM.ext          # Old format for external forcings file *.ext, link with tim/cmp-format boundary conditions specification
ExtForceFileNew                   = FlowFM_bnd.ext      # New format for external forcings file *.ext, link with bc-format boundary conditions specification
Rainfall                          = 0                   # Include rainfall, (0=no, 1=yes)

[trachytopes]
TrtRou                            = Y                   # Include alluvial and vegetation roughness (trachytopes) (Y: yes, N: no)
TrtDef                            = input/trachytopes.ttd# File (*.ttd) including trachytope definitions
TrtL                              = input/trachytopes.arl# File (*.arl) including distribution of trachytope definitions
DtTrt                             = 300.                # Trachytope roughness update time interval (s)

[output]
OutputDir                         = results             # Output directory of map-, his-, rst-, dat- and timings-files, default: DFM_OUTPUT_<modelname>. Set to . for current dir.
FlowGeomFile                      =                     # Flow geometry NetCDF *_flowgeom.nc
ObsFile                           =                     # Points file *.xyn with observation stations with rows x, y, station name
CrsFile                           =                     # Polyline file *_crs.pli defining observation cross sections
FouFile                           =                     # Fourier analysis input file *.fou
HisFile                           =                     # HisFile name *_his.nc
MapFile                           =                     # MapFile name *_map.nc
HisInterval                       = 120. 0. 3283200.    # History output times, given as "interval" "start period" "end period" (s)
XLSInterval                       = 0.                  # Interval (s) between XLS history
MapInterval                       = 3600. 0. 3283200.   # Map file output, given as "interval" "start period" "end period" (s)
RstInterval                       = 86400. 0. 3283200.  # Restart file output times, given as "interval" "start period" "end period" (s)
S1incinterval                     = 0.                  # Interval (m) in incremental file for water levels S1
WaqInterval                       = 0. 0. 3283200.      # DELWAQ output times, given as "interval" "start period" "end period" (s)
StatsInterval                     = -600.               # Interval (in s) between simulation statistics output.
WriteBalancefile                  = 0                   # Write balance file (1: yes, 0: no)
TimingsInterval                   = 0.                  # Timings statistics output interval
TimeSplitInterval                 = 0X                  # Time splitting interval, after which a new output file is started. value+unit, e.g. '1 M', valid units: Y,M,D,h,m,s.
MapFormat                         = 4                   # Map file format, 1: netCDF, 2: Tecplot, 3: netCFD and Tecplot, 4: NetCDF-UGRID
Wrihis_balance                    = 0                   # Write mass balance totals to his file (1: yes, 0: no)
Wrihis_sourcesink                 = 1                   # Write sources-sinks statistics to his file (1=yes, 0=no)
Wrihis_structure_gen              = 1                   # Write general structure parameters to his file (1: yes, 0: no)
Wrihis_structure_dam              = 1                   # Write dam parameters to his file (1: yes, 0: no)
Wrihis_structure_pump             = 1                   # Write pump parameters to his file (1: yes, 0: no)
Wrihis_structure_gate             = 1                   # Write gate parameters to his file (1: yes, 0: no)
Wrihis_structure_weir             = 1                   # Write weir parameters to his file (1: yes, 0: no)
Wrihis_turbulence                 = 1                   # Write k, eps and vicww to his file (1: yes, 0: no)
Wrihis_wind                       = 1                   # Write wind velocities to his file (1: yes, 0: no)
Wrihis_rain                       = 1                   # Write precipitation to his file (1: yes, 0: no)
Wrihis_temperature                = 1                   # Write temperature to his file (1: yes, 0: no)
Wrihis_heatflux                   = 0                   # Write heat flux to his file (1: yes, 0: no)
Wrihis_salinity                   = 1                   # Write salinity to his file (1: yes, 0: no)
Wrimap_waterlevel_s0              = 0                   # Write water levels for previous time step to map file (1: yes, 0: no)
Wrimap_waterlevel_s1              = 1                   # Write water levels to map file (1: yes, 0: no)
Wrimap_volume1                    = 0                   # Write volumes to map file (1: yes, 0: no)
Wrimap_velocity_component_u0      = 0                   # Write velocity component for previous time step to map file (1: yes, 0: no)
Wrimap_velocity_component_u1      = 1                   # Write velocity component to map file (1: yes, 0: no)
Wrimap_velocity_vector            = 1                   # Write cell-center velocity vectors to map file (1: yes, 0: no)
Wrimap_upward_velocity_component  = 1                   # Write upward velocity component on cell interfaces (1: yes, 0: no)
Wrimap_density_rho                = 0                   # Write flow density to map file (1: yes, 0: no)
Wrimap_horizontal_viscosity_viu   = 0                   # Write horizontal viscosity to map file (1: yes, 0: no)
Wrimap_horizontal_diffusivity_diu = 0                   # Write horizontal diffusivity to map file (1: yes, 0: no)
Wrimap_flow_flux_q1               = 1                   # Write flow flux to map file (1: yes, 0: no)
Wrimap_spiral_flow                = 0                   # Write spiral flow to map file (1: yes, 0: no)
Wrimap_numlimdt                   = 0                   # Write the number times a cell was Courant limiting to map file (1: yes, 0: no)
Wrimap_taucurrent                 = 0                   # Write the shear stress to map file (1: yes, 0: no)
Wrimap_chezy                      = 1                   # Write the chezy roughness to map file (1: yes, 0: no)
Wrimap_turbulence                 = 0                   # Write vicww, k and eps to map file (1: yes, 0: no)
Wrimap_trachytopes                = 1                   # Write trachytope roughnesses to map file (1: yes, 0: no)
Wrimap_wind                       = 0                   # Write wind velocities to map file (1: yes, 0: no)
MapOutputTimeVector               =                     # File (*.mpt) containing fixed map output times (s) w.r.t. RefDate
FullGridOutput                    = 0                   # Full grid output mode (0: compact, 1: full time-varying grid data)
EulerVelocities                   = 0                   # Euler velocities output (0: GLM, 1: Euler velocities)
Wrirst_bnd                        = 1                   # Write waterlevel, bedlevel and coordinates of boundaries to restart files
Writepart_domain                  = 1                   # Write partition domain info. for postprocessing

[particles]
ParticlesFile                     = 
AddTracer                         = 0                   # add tracer (1) or not (other)
StartTime                         = 0.                  # starttime (if >0)
TimeStep                          = 0.                  # time step (>0) or every computational time step
** INFO   : **
** INFO   : Start of the computation time loop
** INFO   : Writing initial output to file(s)...
** DEBUG  : Opened NetCDF file 'results\FlowFM_his.nc' as #6.
** DEBUG  : Opened NetCDF file 'results\FlowFM_map.nc' as #7.
** DEBUG  : Opened NetCDF file 'results\FlowFM_20010101_000000_rst.nc' as #8.
** DEBUG  : Closed NetCDF file 'results\FlowFM_20010101_000000_rst.nc.
** INFO   : Done writing initial output to file(s).
** INFO   :    Sim. time done   Sim. time left   Real time used   Real time left Steps left Complete% Interval-averaged time step
** INFO   :       0d  0:10:00     37d 23:50:00      0d  0:00:00      0d  0:03:22      10942     0.0%     0.00000
** DEBUG  : Opened NetCDF file 'results\FlowFM_20010102_000000_rst.nc' as #8.
** DEBUG  : Closed NetCDF file 'results\FlowFM_20010102_000000_rst.nc.
** DEBUG  : Opened NetCDF file 'results\FlowFM_20010103_000000_rst.nc' as #8.
** DEBUG  : Closed NetCDF file 'results\FlowFM_20010103_000000_rst.nc.
** DEBUG  : Opened NetCDF file 'results\FlowFM_20010104_000000_rst.nc' as #8.
** DEBUG  : Closed NetCDF file 'results\FlowFM_20010104_000000_rst.nc.
** DEBUG  : Opened NetCDF file 'results\FlowFM_20010105_000000_rst.nc' as #8.
** DEBUG  : Closed NetCDF file 'results\FlowFM_20010105_000000_rst.nc.
** DEBUG  : Opened NetCDF file 'results\FlowFM_20010106_000000_rst.nc' as #8.
** DEBUG  : Closed NetCDF file 'results\FlowFM_20010106_000000_rst.nc.
** DEBUG  : Opened NetCDF file 'results\FlowFM_20010107_000000_rst.nc' as #8.
** DEBUG  : Closed NetCDF file 'results\FlowFM_20010107_000000_rst.nc.
** DEBUG  : Opened NetCDF file 'results\FlowFM_20010108_000000_rst.nc' as #8.
** DEBUG  : Closed NetCDF file 'results\FlowFM_20010108_000000_rst.nc.
** DEBUG  : Opened NetCDF file 'results\FlowFM_20010109_000000_rst.nc' as #8.
** DEBUG  : Closed NetCDF file 'results\FlowFM_20010109_000000_rst.nc.
** DEBUG  : Opened NetCDF file 'results\FlowFM_20010110_000000_rst.nc' as #8.
** DEBUG  : Closed NetCDF file 'results\FlowFM_20010110_000000_rst.nc.
** INFO   : User interrupt
** INFO   : Start of the computation time loop
** INFO   : Writing initial output to file(s)...
** INFO   : Done writing initial output to file(s).
** DEBUG  : Opened NetCDF file 'results\FlowFM_20010111_000000_rst.nc' as #8.
** DEBUG  : Closed NetCDF file 'results\FlowFM_20010111_000000_rst.nc.
** DEBUG  : Opened NetCDF file 'results\FlowFM_20010112_000000_rst.nc' as #8.
** DEBUG  : Closed NetCDF file 'results\FlowFM_20010112_000000_rst.nc.
** DEBUG  : Opened NetCDF file 'results\FlowFM_20010113_000000_rst.nc' as #8.
** DEBUG  : Closed NetCDF file 'results\FlowFM_20010113_000000_rst.nc.
** DEBUG  : Opened NetCDF file 'results\FlowFM_20010114_000000_rst.nc' as #8.
** DEBUG  : Closed NetCDF file 'results\FlowFM_20010114_000000_rst.nc.
** DEBUG  : Opened NetCDF file 'results\FlowFM_20010115_000000_rst.nc' as #8.
** DEBUG  : Closed NetCDF file 'results\FlowFM_20010115_000000_rst.nc.
** DEBUG  : Opened NetCDF file 'results\FlowFM_20010116_000000_rst.nc' as #8.
** DEBUG  : Closed NetCDF file 'results\FlowFM_20010116_000000_rst.nc.
** DEBUG  : Opened NetCDF file 'results\FlowFM_20010117_000000_rst.nc' as #8.
** DEBUG  : Closed NetCDF file 'results\FlowFM_20010117_000000_rst.nc.
** DEBUG  : Opened NetCDF file 'results\FlowFM_20010118_000000_rst.nc' as #8.
** DEBUG  : Closed NetCDF file 'results\FlowFM_20010118_000000_rst.nc.
** DEBUG  : Opened NetCDF file 'results\FlowFM_20010119_000000_rst.nc' as #8.
** DEBUG  : Closed NetCDF file 'results\FlowFM_20010119_000000_rst.nc.
** DEBUG  : Opened NetCDF file 'results\FlowFM_20010120_000000_rst.nc' as #8.
** DEBUG  : Closed NetCDF file 'results\FlowFM_20010120_000000_rst.nc.
** DEBUG  : Opened NetCDF file 'results\FlowFM_20010121_000000_rst.nc' as #8.
** DEBUG  : Closed NetCDF file 'results\FlowFM_20010121_000000_rst.nc.
** DEBUG  : Opened NetCDF file 'results\FlowFM_20010122_000000_rst.nc' as #8.
** DEBUG  : Closed NetCDF file 'results\FlowFM_20010122_000000_rst.nc.
** DEBUG  : Opened NetCDF file 'results\FlowFM_20010123_000000_rst.nc' as #8.
** DEBUG  : Closed NetCDF file 'results\FlowFM_20010123_000000_rst.nc.
** DEBUG  : Opened NetCDF file 'results\FlowFM_20010124_000000_rst.nc' as #8.
** DEBUG  : Closed NetCDF file 'results\FlowFM_20010124_000000_rst.nc.
** DEBUG  : Opened NetCDF file 'results\FlowFM_20010125_000000_rst.nc' as #8.
** DEBUG  : Closed NetCDF file 'results\FlowFM_20010125_000000_rst.nc.
** DEBUG  : Opened NetCDF file 'results\FlowFM_20010126_000000_rst.nc' as #8.
** DEBUG  : Closed NetCDF file 'results\FlowFM_20010126_000000_rst.nc.
** DEBUG  : Opened NetCDF file 'results\FlowFM_20010127_000000_rst.nc' as #8.
** DEBUG  : Closed NetCDF file 'results\FlowFM_20010127_000000_rst.nc.
** DEBUG  : Opened NetCDF file 'results\FlowFM_20010128_000000_rst.nc' as #8.
** DEBUG  : Closed NetCDF file 'results\FlowFM_20010128_000000_rst.nc.
** DEBUG  : Opened NetCDF file 'results\FlowFM_20010129_000000_rst.nc' as #8.
** DEBUG  : Closed NetCDF file 'results\FlowFM_20010129_000000_rst.nc.
** DEBUG  : Opened NetCDF file 'results\FlowFM_20010130_000000_rst.nc' as #8.
** DEBUG  : Closed NetCDF file 'results\FlowFM_20010130_000000_rst.nc.
** DEBUG  : Opened NetCDF file 'results\FlowFM_20010131_000000_rst.nc' as #8.
** DEBUG  : Closed NetCDF file 'results\FlowFM_20010131_000000_rst.nc.
** DEBUG  : Opened NetCDF file 'results\FlowFM_20010201_000000_rst.nc' as #8.
** DEBUG  : Closed NetCDF file 'results\FlowFM_20010201_000000_rst.nc.
** DEBUG  : Opened NetCDF file 'results\FlowFM_20010202_000000_rst.nc' as #8.
** DEBUG  : Closed NetCDF file 'results\FlowFM_20010202_000000_rst.nc.
** DEBUG  : Opened NetCDF file 'results\FlowFM_20010203_000000_rst.nc' as #8.
** DEBUG  : Closed NetCDF file 'results\FlowFM_20010203_000000_rst.nc.
** DEBUG  : Opened NetCDF file 'results\FlowFM_20010204_000000_rst.nc' as #8.
** DEBUG  : Closed NetCDF file 'results\FlowFM_20010204_000000_rst.nc.
** DEBUG  : Opened NetCDF file 'results\FlowFM_20010205_000000_rst.nc' as #8.
** DEBUG  : Closed NetCDF file 'results\FlowFM_20010205_000000_rst.nc.
** DEBUG  : Opened NetCDF file 'results\FlowFM_20010206_000000_rst.nc' as #8.
** DEBUG  : Closed NetCDF file 'results\FlowFM_20010206_000000_rst.nc.
** DEBUG  : Opened NetCDF file 'results\FlowFM_20010207_000000_rst.nc' as #8.
** DEBUG  : Closed NetCDF file 'results\FlowFM_20010207_000000_rst.nc.
** DEBUG  : Opened NetCDF file 'results\FlowFM_20010208_000000_rst.nc' as #8.
** DEBUG  : Closed NetCDF file 'results\FlowFM_20010208_000000_rst.nc.
