* Deltares, D-Flow FM Version 1.1.219.50507, Apr 03 2017, 22:21:35
* File creation date: 15:25:50, 19-09-2017                                      
